chaoliu/chaoliu/Output.txt
                       潮流上机计算
题号：45       学号：201705000307      姓名：李腾      班级：电力英1703
--------------------潮流计算过程-------------------
电导矩阵
1.54977 -0.961538 -0.588235 
-0.961538 0.961538 0 
-0.588235 0 0.588235 
电纳矩阵
-7.16063 4.80769 2.35294 
4.80769 -4.80769 0 
2.35294 0 -2.35294 
*****************************************************************
迭代次数0
delta_P[1]=-0.480769
delta_Q[1]=0.496154
delta_P[2]=0.280385
delta_U[2]=0
雅各比矩阵为：
7.25679 1.53054 -4.80769 -0.961538 
-1.569 7.06448 0.961538 -4.80769 
-4.90385 -0.980769 4.80769 1 
0 0 0 2.04 
输出delta_e、delta_f
节点1 delta_f=-0.0974802 delta_e=0.0527138
节点2 delta_f=-0.0303562 delta_e=0
节点3 delta_f=0 delta_e=0
输出迭代过程中的电压值: 
U[1]=1.05271-j0.0974802
U[2]=1.02-j0.0303562
U[3]=1+j0
*****************************************************************
迭代次数1
delta_P[1]=-0.0238809
delta_Q[1]=-0.0721755
delta_P[2]=0.00965249
delta_U[2]=-0.000921501
雅各比矩阵为：
6.98383 1.83988 -4.96739 -1.48088 
-2.8191 7.79022 1.48088 -4.96739 
-4.87466 -1.12671 5.09648 1.41797 
0 0 -0.0607125 2.04 
输出delta_e、delta_f
节点1 delta_f=-0.0031376 delta_e=-0.0101413
节点2 delta_f=-0.00319694 delta_e=-0.00054686
节点3 delta_f=0 delta_e=0
输出迭代过程中的电压值: 
U[1]=1.04257-j0.100618
U[2]=1.01945-j0.0335532
U[3]=1+j0
*****************************************************************
迭代次数2
delta_P[1]=-1.20456e-005
delta_Q[1]=-0.000761572
delta_P[2]=-0.000142759
delta_U[2]=-1.05195e-005
雅各比矩阵为：
6.97455 1.82434 -4.91562 -1.48621 
-2.84814 7.64454 1.48621 -4.91562 
-4.86895 -1.14156 5.04459 1.44175 
0 0 -0.0671063 2.03891 
输出delta_e、delta_f
节点1 delta_f=-3.55848e-005 delta_e=-0.000101747
节点2 delta_f=-8.34109e-005 delta_e=-7.90467e-006
节点3 delta_f=0 delta_e=0
输出迭代过程中的电压值: 
U[1]=1.04247-j0.100653
U[2]=1.01945-j0.0336366
U[3]=1+j0
*****************************************************************
迭代次数3
delta_P[1]=2.50706e-008
delta_Q[1]=-7.29513e-008
delta_P[2]=-4.25723e-008
delta_U[2]=-7.01985e-009
雅各比矩阵为：
6.97448 1.82443 -4.9151 -1.48629 
-2.84824 7.64304 1.48629 -4.9151 
-4.86884 -1.14195 5.04398 1.44201 
0 0 -0.0672732 2.03889 
输出delta_e、delta_f
节点1 delta_f=-4.02687e-009 delta_e=-1.08897e-008
节点2 delta_f=-1.36794e-008 delta_e=-3.89433e-009
节点3 delta_f=0 delta_e=0
输出迭代过程中的电压值: 
U[1]=1.04247-j0.100653
U[2]=1.01945-j0.0336366
U[3]=1+j0
--------------------潮流计算结果-------------------
各节点电压：
U[1]=1.04247-j0.100653
U[2]=1.01945-j0.0336366
U[3]=1+j0
各节点注入功率：
PQ节点：节点1     S[1]=-0.5+j0.4
PV节点：节点2     S[2]=0.3-j0.188637
平衡节点:   节点3     S[3]=0.211849-j0.159139
线路功率：
线路1     1--2的功率为:   -0.295172+j0.212779
线路1     2--1的功率为:   0.3-j-0.188637
线路2     1--3的功率为:   -0.204828+j0.187221
线路2     3--1的功率为:   0.211849-j-0.159139
线路损耗功率:
线路1损耗的功率为:   0.0048283+j0.0241415
线路2损耗的功率为:   0.00702052+j0.0280821
网络总损耗功率为:   0.0118488+j0.0522236
********************************************************************
----------潮流计算结束----------
